# Pitzer.DAT for calculating pressure dependence of reactions
#   and temperature dependence to 200 °C. With
#   molal volumina of aqueous species and of minerals, and
#   critical temperatures and pressures of gases used in Peng-Robinson's EOS.
# Details are given at the end of this file.
SOLUTION_MASTER_SPECIES
Alkalinity	CO3-2	 1	Ca0.5(CO3)0.5	50.05
B		B(OH)3	 0	B		10.81
Ba		Ba+2	 0	Ba		137.33
Br		Br-	 0	Br		79.904
C		CO3-2	 2	HCO3		12.0111
C(4)		CO3-2	 2	HCO3		12.0111
C(-4)		CH4      0      CH4
Ca		Ca+2	 0	Ca		40.08
Cl		Cl-	 0	Cl		35.453
E		e-	 0	0.0		0.0
Fe		Fe+2	 0	Fe		55.847
H		H+	-1	H		1.008
H(0)		H2	0	H                          #Li Jun added, 2018-4-11
H(1)		H+	-1	0.0
K		K+	 0	K		39.0983
Li		Li+	 0	Li		6.941
Mg		Mg+2	 0	Mg		24.305
Mn		Mn+2	 0	Mn		54.938
Na		Na+	 0	Na		22.9898
O		H2O	 0	O		16.00
O(0)		O2	0	O # added by Jun Li, 2018-4-11
O(-2)		H2O	 0	0.0
N		NO3-	0	N		14.0067
N(+5)		NO3-	0	N
N(+3)		NO2-	0	N
N(0)		N2	0	N
N(-3)           NH4+    0       N               14.0067
S		SO4-2	 0	SO4		32.064
S(-2)           HS-     1.0     S  
S(6)            SO4-2   0      SO4
#Si		H4SiO4	 0	SiO2		28.0843
Si              SiO2    0.0    SiO2             28.0855
Sr		Sr+2	 0	Sr		87.62
# redox-uncoupled gases	
Hdg		Hdg	 0	Hdg		2.016 # H2 gas
Oxg		Oxg	 0	Oxg		32 # Oxygen gas
Mtg		Mtg	 0.0	Mtg		16.032 # CH4 gas
Sg		H2Sg	 1.0	H2Sg		34.08
Ntg		Ntg	 0	Ntg		28.0134 # N2 gas
#
# Uranium master species 
U        UO2+2      0.0	U   238.0289
U(+3)    U+3        0.0 U
U(+4)    U+4        0.0 U
U(+5)    UO2+       0.0 U
U(+6)    UO2+2      0.0 U
##########
SOLUTION_SPECIES
H+ = H+
	-dw	 9.31e-9
e- = e-
H2O = H2O
Li+ = Li+
	-dw	 1.03e-9
	-Vm  -0.419  -0.069  13.16  -2.78  0.416  0  0.296  -12.4  -2.74e-3  1.26 # ref. 2 and Ellis, 1968, J. Chem. Soc. A, 1138
Na+ = Na+
	-dw	 1.33e-9
	-Vm   2.28  -4.38  -4.1  -0.586  0.09  4  0.3  52  -3.33e-3  0.566 # ref. 1
# for calculating densities (rho) when I > 3...
	# -Vm   2.28  -4.38  -4.1  -0.586  0.09  4  0.3  52  -3.33e-3  0.45
K+ = K+
	-dw	 1.96e-9
	-Vm  3.322  -1.473  6.534  -2.712  9.06e-2  3.5  0  29.70  0  1 # ref. 1
Mg+2 = Mg+2
	-dw	 0.705e-9
	-Vm  -1.410  -8.6  11.13  -2.39  1.332  5.5  1.29  -32.9  -5.86e-3  1 # ref. 1
Ca+2 = Ca+2
	-dw	 0.793e-9
	-Vm  -0.3456  -7.252  6.149  -2.479  1.239  5  1.60  -57.1  -6.12e-3  1 # ref. 1
Sr+2 = Sr+2
	-dw	 0.794e-9
	-Vm  -1.57e-2  -10.15  10.18  -2.36  0.860  5.26  0.859  -27.0  -4.1e-3  1.97 # ref. 1
Ba+2 = Ba+2
	-dw	 0.848e-9
	-Vm  2.063  -10.06  1.9534  -2.36  0.4218  5  1.58  -12.03  -8.35e-3  1 # ref. 1
Mn+2 = Mn+2
	-dw	 0.688e-9
	-Vm  -1.10  -8.03  4.08  -2.45  1.4  6  8.07  0  -1.51e-2  0.118 # ref. 2
Fe+2 = Fe+2
	-dw	 0.719e-9
	-Vm  -0.3255  -9.687  1.536  -2.379  0.3033  6  -4.21e-2  39.7  0  1 # ref. 1
Cl- = Cl-
	-dw	 2.03e-9
	-Vm  4.465  4.801  4.325  -2.847  1.748  0  -0.331  20.16  0  1 # ref. 1
CO3-2 = CO3-2
	-dw	 0.955e-9
	-Vm  4.91  0  0  -5.41  4.76  0  0.386  89.7  -1.57e-2  1 # ref. 1
SO4-2 = SO4-2
	-dw	 1.07e-9
	-Vm  -7.77  43.17  141.1  -42.45  3.794  0  4.97  26.5  -5.77e-2  0.45 # ref. 1
NO3- = NO3-
	-gamma	3.0	0
	-dw	 1.9e-9
	-Vm  6.32  6.78  0  -3.06  0.346  0  0.93  0  -0.012  1 # ref. 1	
B(OH)3 = B(OH)3
	-dw	1.1e-9
	-Vm 7.0643   8.8547   3.5844   -3.1451 -.2000  # supcrt
Br- = Br-
	-dw	 2.01e-9
	-Vm   7.05  3.95  2.03  -3.14  2.07  0  -0.983  39.9  4.05e-3  1 # ref. 2
# Urannium species    
UO2+2 =  UO2+2 
	-llnl_gamma	4.5000	
	log_k 0
	-delta_H	0	kJ/mol	# Calculated enthalpy of reaction	UO2+2
#	Enthalpy of formation:	-1019 kJ/mol
#        -Vm 3.0256 -4.1084 15.3326 -2.6091 1.40990 0 0 0 0 0 # SSW+97    
#H4SiO4 = H4SiO4
#	-dw  1.10e-9
#	-Vm  10.5  1.7  20  -2.7  0.1291 # supcrt + 2*H2O in a1
# redox-uncoupled gases
Hdg = Hdg # H2
	-dw	 5.13e-9
	-Vm 6.52  0.78  0.12 # supcrt
Oxg = Oxg # O2
	-dw	 2.35e-9
	-Vm   5.7889  6.3536  3.2528  -3.0417   -0.3943 # supcrt
Mtg = Mtg # CH4
	-dw   1.85e-9
	-Vm   9.01  -1.11  0  -1.85  -1.50 # ref. 1 + Hnedkovsky et al., 1996, JCT 28, 125
Ntg = Ntg # N2
	-dw	 1.96e-9
	-Vm 7 # Pray et al., 1952, IEC 44. 1146
H2Sg = H2Sg # H2S
	-dw	 2.1e-9
	-Vm  7.81  2.96  -0.46 # supcrt
# aqueous species
H2O = OH- + H+
	-analytic  293.29227  0.1360833  -10576.913  -123.73158  0  -6.996455e-5
	-dw	 5.27e-9
	-Vm  -9.66  28.5  80.0 -22.9 1.89 0 1.09 0 0 1 # ref. 1
2 H2O = O2 + 4 H+ + 4 e-     #Copy O2 reaction from phreeqc.dat, by Li Jun, 2018-4-1
	-log_k	-86.08
	-delta_h 134.79 kcal
	-dw  2.35e-9
	-Vm  5.7889  6.3536  3.2528  -3.0417  -0.3943 # supcrt
SO4-2 + H+  =  HS-  + 2 O2  
    -llnl_gamma           3.5    
    log_k           -138.3169
   -delta_H        869.226        kJ/mol  # Calculated enthalpy of reaction  HS-
#        Enthalpy of formation:        -3.85 kcal/mol
#        -analytic 2.6251e+001 3.9525e-002 -4.5443e+004 -1.1107e+001 3.1843e+005
   -analytic 1.31435E+03	2.06636E-01	-1.22568E+05	-4.69398E+02	5.18319E+06 # from TR
#       -Range:  0-300
  -dw      1.73e-9
HS- + H+ = H2S
	-log_k	6.994
	-delta_h -5.30	kcal
	-analytical  -11.17  0.02386  3279.0
	-dw	 2.1e-9
	-Vm  7.81  2.96  -0.46 # supcrt  
 SO4-2 + H+  =  HSO4-
        -llnl_gamma           4.0    
        log_k           +1.9791
        -delta_H        20.5016        kJ/mol  # Calculated enthalpy of reaction  HSO4-
#        Enthalpy of formation:        -212.5 kcal/mol
#        -analytic 4.9619e+001 3.0368e-002 -1.1558e+003 -2.1335e+001 -1.8051e+001
        -analytic 9.90632E+02	1.50575E-01	-5.81175E+04	-3.55450E+02	3.63691E+06 # from TR
#       -Range:  0-300
        -dw         1.33e-9  
2 H+ + 2 e- = H2  #Li Jun added this equation, 2018-4-11
	-log_k	-3.15
	-delta_h -1.759 kcal
	-dw	 5.13e-9
	-Vm 6.52  0.78  0.12 # supcrt
CO3-2 + H+ = HCO3-
	log_k	   10.3393
	delta_h -3.561  kcal
	-analytic    107.8975    0.03252849  -5151.79   -38.92561    563713.9
	-dw	 1.18e-9
	-Vm  8.54  0  -11.7  0  1.6  0  0  116  0  1 # ref. 1
CO3-2 + 2 H+ = CO2 + H2O
	log_k	   16.6767
	delta_h	 -5.738  kcal
	-analytic    464.1965    0.09344813  -26986.16	-165.75951   2248628.9
	-dw	 1.92e-9
	-Vm   7.29  0.92  2.07  -1.23  -1.60 # ref. 1 + McBride et al. 2015, JCED 60, 171
#Mg+2 + H+ + CO3-2 = MgHCO3+
#	-log_k	11.399
#	-delta_h -2.771	kcal
#	-analytic	48.6721	0.03252849	-2614.335	-18.00263	563713.9
#	-gamma	4.0	0
#	-dw 4.78e-10
#	-Vm  2.7171  -1.1469  6.2008  -2.7316  .5985 4 # supcrt	
CO3-2 + 10 H+ + 8 e- = CH4 + 3 H2O
	-log_k	41.071
	-delta_h -61.039 kcal
	-dw	 1.85e-9
	-Vm   9.01  -1.11  0  -1.85  -1.50 # ref. 1 + Hnedkovsky et al., 1996, JCT 28, 125
SO4-2 + H+ = HSO4-
	log_k	   1.979
	delta_h 4.91    kcal
	-analytic   -5.3585   0.0183412   557.2461
	-dw	 1.33e-9
	-Vm 8.2 9.2590   2.1108   -3.1618 1.1748  0 -0.3 15 0 1 # ref. 1
HS- = S-2 + H+
	-log_k	-12.918
	-delta_h 12.1	kcal
	-gamma	5.0	0
	-dw	 0.731e-9    
H2Sg = HSg- + H+
	log_k	-6.994
	delta_h 5.30	kcal
	-analytical  11.17   -0.02386  -3279.0
	-dw	 2.1e-9
	-Vm 5.0119   4.9799   3.4765   -2.9849 1.4410 # supcrt
NO3- + 2 H+ + 2 e- = NO2- + H2O               # Li Jun copied from phreeqc.dat
	-log_k	28.570
	-delta_h -43.760 kcal
	-gamma	3.0	0
	-dw	 1.91e-9
	-Vm  5.5864  5.8590  3.4472  -3.0212  1.1847 # supcrt
2 NO3- + 12 H+ + 10 e- = N2 + 6 H2O           # Li Jun copied from phreeqc.dat
	-log_k	207.08
	-delta_h -312.130	kcal
	-dw	 1.96e-9
	-Vm 7 # Pray et al., 1952, IEC 44. 1146
NO3- + 10 H+ + 8 e- = NH4+ + 3 H2O            # Li Jun copied from phreeqc.dat
	-log_k	119.077
	-delta_h -187.055	kcal	
	-gamma	2.5	0
	-dw	 1.98e-9
	-Vm  4.837  2.345  5.522  -2.88 1.096  3  -1.456  75.0  7.17e-3  1 # ref. 1	
	
#AmmH+ = Amm + H+
NH4+ = NH3 + H+
	-log_k	-9.252
	-delta_h 12.48	kcal
	-analytic  0.6322  -0.001225  -2835.76
	-dw	 2.28e-9
	-Vm   6.69  2.8  3.58  -2.88  1.43 # ref. 2
#NO3- + 10 H+ + 8 e- = AmmH+ + 3 H2O
#	-log_k	119.077
#	-delta_h -187.055	kcal
#	-gamma	2.5	0
#	-Vm  4.837  2.345  5.522  -2.88 1.096  3  -1.456  75.0  7.17e-3  1 # ref. 1

#AmmH+ + SO4-2 = AmmHSO4-
NH4+ + SO4-2 = NH4SO4-
	-log_k	1.11
	-Vm   14.0  0  -35.2  0  0  0  12.3  0  -0.141  1 # ref. 2	
B(OH)3 + H2O = B(OH)4- + H+
	log_k	   -9.239
	delta_h 0   kcal
3B(OH)3 = B3O3(OH)4- + 2H2O + H+
	log_k	   -7.528
	delta_h 0   kcal
4B(OH)3 = B4O5(OH)4-2 + 3H2O + 2H+
	log_k	   -16.134
	delta_h 0   kcal
Ca+2 + B(OH)3 + H2O = CaB(OH)4+ + H+
	log_k	   -7.589
	delta_h 0   kcal
Mg+2 + B(OH)3 + H2O = MgB(OH)4+ + H+
	log_k	   -7.840
	delta_h 0   kcal
Ca+2 + CO3-2 = CaCO3
	log_k	   3.151
	delta_h 3.547   kcal
	-analytic    -1228.806   -0.299440    35512.75   485.818
	-dw 4.46e-10	# complexes: calc'd with the Pikal formula
	-Vm  -.2430   -8.3748   9.0417   -2.4328  -.0300 # supcrt
Mg+2 + H2O = MgOH+ + H+
	log_k	   -11.809
	delta_h 15.419 kcal
Mg+2 + CO3-2 = MgCO3
	log_k	   2.928
	delta_h 2.535   kcal
	-analytic	-32.225   0.0	  1093.486    12.72433
	-dw 4.21e-10
	-Vm  -.5837   -9.2067   9.3687   -2.3984  -.0300 # supcrt
#H4SiO4 = H3SiO4- + H+
#	-log_k  -9.83; -delta_h 6.12 kcal
#	-analytic	-302.3724	-0.050698	15669.69	108.18466	-1119669.0
#	-Vm  7.94  1.0881  5.3224  -2.8240  1.4767 # supcrt + H2O in a1
#H4SiO4 = H2SiO4-2 + 2 H+
#	-log_k  -23.0;  -delta_h 17.6 kcal
#	-analytic	-294.0184	-0.072650	11204.49	108.18466	-1119669.0

SiO2 =  SiO2 
        -llnl_gamma        3.0000        
        log_k 0
        -delta_H        0        kJ/mol  # Calculated enthalpy of reaction  SiO2
        -dw         1.10e-9
        -millero 56.0 # b, c, d, e and f not reported by Millero, 2000
#        Enthalpy of formation:        -209.775 kcal/mol    
    
# Uranium secondary species
# (1)
 1.0000 UO2++ + 1.0000 H+  =  U+++ +0.7500 O2 +0.5000 H2O 
        -llnl_gamma           5.0    
        log_k           -64.8028
	-delta_H	377.881	kJ/mol	# Calculated enthalpy of reaction	U+3
#	Enthalpy of formation:	-489.1 kJ/mol
        -analytic 2.5133e+001 6.4088e-003 -2.2542e+004 -8.1423e+000 3.4793e+005
#       -Range:  0-300
#       -Vm		-2.8438 -14.722 11.528 -2.1703 2.27520 # SSW+97
#
# (2)
1.000U+4 + 1.000H2O  = UO+2 + 2.000H+
     -llnl_gamma 4.5
     log_k    -1.999     
     delta_h  73.139     #kJ/mol        #97bsho/sas
     -analytic 2.0859076E+2  3.4819859E-2  -1.1122129E+4  -7.4710262E+1  1.0648873E+5
#     -Vm            2.2403 -2.3083 6.6513 -2.6835 1.5684
     #References = LogK/DGf: 97bsho/sas; DHf/DHr: Internal calculation; S§Ò§å: 97bsho/sas; Cp: 97bsho/sas; V§Ò§å: 97bsho/sas;
# (3)
1.000U+4 + 2.000H2O  = HUO2+ + 3.000H+
     -llnl_gamma 4.0
     log_k    -4.988     
     delta_h  96.790     #kJ/mol        #97bsho/sas
     -analytic 3.7763911E+2  6.0546026E-2  -2.1655184E+4  -1.3557093E+2  6.5908462E+5
#     -Vm            3.2291 0.1055 5.7039 -2.7833 0.7287
     #References = LogK/DGf: 97bsho/sas; DHf/DHr: Internal calculation; S§Ò§å: 97bsho/sas; Cp: 97bsho/sas; V§Ò§å: 97bsho/sas;
# (4)
 2.0000 H+ + 1.0000 UO2++  =  U++++ +1.0000 H2O +0.5000 O2 
        -llnl_gamma           5.5    
        log_k           -33.9491
	-delta_H	135.895	kJ/mol	# Calculated enthalpy of reaction	U+4
#	Enthalpy of formation:	-591.2 kJ/mol
        -analytic 4.4837e+001 1.0129e-002 -1.1787e+004 -1.9194e+001 4.6436e+005
#       -Range:  0-300
#        -Vm		-4.2836 -18.2319 12.8955 -2.0252 3.68350 # SSW+97
# (5)
 1.0000 UO2++ + 0.5000 H2O  =  UO2+ +1.0000 H+ +0.2500 O2 
        -llnl_gamma           4.0    
        log_k           -20.0169
	-delta_H	133.759	kJ/mol	# Calculated enthalpy of reaction	UO2+
#	Enthalpy of formation:	-1025.13 kJ/mol
        -analytic 8.0480e+000 9.5845e-003 -6.5994e+003 -3.5515e+000 -1.0298e+002
#       -Range:  0-300
#        -Vm		3.3767 0.4614 5.5725 -2.7980 0.63880 # SSW+97
# (6)
U+4 + 4 OH- = U(OH)4
      -llnl_gamma           3.0
	  log_k                 46
	  -delta_H              -113.347
#	  -Vm       2.4664 -1.7587 6.4404 -2.7062 -0.03
#Ref Guillaumont    
# (7)
2.0000 SO4-- + 1.0000 U++++  =  U(SO4)2
        -llnl_gamma           3.0    
        log_k           +10.3507
	-delta_H	33.2232	kJ/mol	# Calculated enthalpy of reaction	U(SO4)2
#	Enthalpy of formation:	-2377.18 kJ/mol
        -analytic 4.9476e+002 1.7832e-001 -1.1901e+004 -2.0111e+002 -2.0227e+002
#       -Range:  0-200
# (7)
1.0000 U++++ + 1.0000 Cl-  =  UCl+++
        -llnl_gamma           5.0    
        log_k           +1.7073
	-delta_H	-18.9993	kJ/mol	# Calculated enthalpy of reaction	UCl+3
#	Enthalpy of formation:	-777.279 kJ/mol
        -analytic 9.4418e+001 4.1718e-002 -7.0675e+002 -4.1532e+001 -1.1056e+001
#       -Range:  0-300
# (9)
2.0000 HCO3- + 1.0000 UO2++  =  UO2(CO3)2-- +2.0000 H+
        -llnl_gamma           4.0    
        log_k           -3.7467
	-delta_H	47.9065	kJ/mol	# Calculated enthalpy of reaction	UO2(CO3)2-2
#	Enthalpy of formation:	-2350.96 kJ/mol
        -analytic 2.6569e+002 8.1552e-002 -9.0918e+003 -1.0638e+002 -1.4195e+002
#       -Range:  0-300
# (10)
3.0000 CO3-2 + 1.0000 UO2+  =  UO2(CO3)3-5
        -llnl_gamma            4.0
	log_k                  6.950    #Guillaumont2003
	-delta_h               0      	# Not possible to calculate enthalpy of reaction	
# (11)
 3.0000 HCO3- + 1.0000 UO2++  =  UO2(CO3)3---- +3.0000 H+
        -llnl_gamma           4.0    
        log_k           -9.4302
	-delta_H	4.9107	kJ/mol	# Calculated enthalpy of reaction	UO2(CO3)3-4
#	Enthalpy of formation:	-3083.89 kJ/mol
        -analytic 3.7918e+002 1.1789e-001 -1.0233e+004 -1.5738e+002 -1.5978e+002
#       -Range:  0-300
# (12)
2 Ca+2 + UO2+2 + 3 CO3-2  =  Ca2UO2(CO3)3
        -llnl_gamma   3.0
	log_k         30.7
	-delta_h      0
	# Ref Dong2006
# (13)	
Ca+2 + UO2+2 + 3 CO3-2  =  CaUO2(CO3)3-2
        -llnl_gamma   4.0
	log_k         27.18
	-delta_h      0
	# Ref Dong2006
# (14)    
2.0000 H2O + 1.0000 UO2++  =  UO2(OH)2 +2.0000 H+
        -llnl_gamma           3.0    
#       log_k           -10.3146  
        log_k           -12.150 #Guillaumont2003
	-delta_H	0	      	# Not possible to calculate enthalpy of reaction	UO2(OH)2
#	-Vm       3.7801 1.4512 5.1736 -2.8389 -0.03
#	Enthalpy of formation:	-0 kcal/mol  
  
# (15)
3.0000 H2O + 1.0000 UO2++  =  UO2(OH)3- +3.0000 H+
    -llnl_gamma           4.0    
#        log_k           -19.2218 
     log_k           -20.73  # Altmaier et al.2017
	-delta_H	0	      	# Not possible to calculate enthalpy of reaction	UO2(OH)3-
#	-Vm       4.9364 4.2748 4.0637 -2.9556 1.9339
#	Enthalpy of formation:	-0 kcal/mol

# (16)
4.0000 H2O + 1.0000 UO2++  =  UO2(OH)4-- +4.0000 H+
        -llnl_gamma           4.0    
#        log_k           -33.0291 
        log_k           -31.92  # Altmaier et al.2017
	-delta_H	0	      	# Not possible to calculate enthalpy of reaction	UO2(OH)4-2
#	-Vm       5.0964 4.6606 3.9223 -2.9716 3.6219
#	Enthalpy of formation:	-0 kcal/mol

# (17)
2.0000 SO4-- + 1.0000 UO2++  =  UO2(SO4)2--
    -llnl_gamma           4.0    
     log_k           +3.9806
	-delta_H	35.6242	kJ/mol	# Calculated enthalpy of reaction	UO2(SO4)2-2
#	Enthalpy of formation:	-2802.58 kJ/mol
        -analytic 3.9907e+002 1.3536e-001 -1.0813e+004 -1.6130e+002 -1.6884e+002
#       -Range:  0-300

# (18)
3 SO4-2 + UO2+2  =  UO2(SO4)3-4
        -llnl_gamma           4.0
	log_k            3.020  # Guillanmont2003
	-delta_h         0
   
# (19)   
SiO2 + UO2+2 + 2 H2O  =  UO2SiO(OH)3+ + H+
        -llnl_gamma     4.0  
	log_k     -1.8324 # Guillanmont2003
	-delta_h  0
    
# (20)    
1.0000 UO2++ + 1.0000 HCO3-  =  UO2CO3 +1.0000 H+
        -llnl_gamma           3.0    
        log_k           -0.6634
	-delta_H	19.7032	kJ/mol	# Calculated enthalpy of reaction	UO2CO3
#	Enthalpy of formation:	-1689.23 kJ/mol
        -analytic 7.3898e+001 2.8127e-002 -2.4347e+003 -3.0217e+001 -4.1371e+001
#       -Range:  0-200

# (21)
1.0000 UO2++ + 1.0000 Cl-  =  UO2Cl+
        -llnl_gamma           4.0    
        log_k           +0.1572
	-delta_H	8.00167	kJ/mol	# Calculated enthalpy of reaction	UO2Cl+
#	Enthalpy of formation:	-1178.08 kJ/mol
        -analytic 9.8139e+001 3.8869e-002 -2.3178e+003 -4.1133e+001 -3.6196e+001
#       -Range:  0-300

# (22)
2.0000 Cl- + 1.0000 UO2++  =  UO2Cl2
        -llnl_gamma           3.0    
        log_k           -1.1253
	-delta_H	15.0013	kJ/mol	# Calculated enthalpy of reaction	UO2Cl2
#	Enthalpy of formation:	-1338.16 kJ/mol
        -analytic 3.4087e+001 1.3840e-002 -1.3664e+003 -1.4043e+001 -2.3216e+001
#       -Range:  0-200
  
# (23)  
1.0000 UO2++ + 1.0000 NO3-  =  UO2NO3+
        -llnl_gamma           4.0    
        log_k           +0.2805
	-delta_H	0	      	# Not possible to calculate enthalpy of reaction	UO2NO3+
#	Enthalpy of formation:	-0 kcal/mol
 
# (24) 
1.0000 UO2++ + 1.0000 H2O  =  UO2OH+ +1.0000 H+
        -llnl_gamma           4.0    
        # log_k           -5.2073
	# -delta_H	  43.1813	kJ/mol	# Calculated enthalpy of reaction	UO2OH+
	log_k      -5.25
        -delta_H   43.459  #Guillaumont2003
#	Enthalpy of formation:	-1261.66 kJ/mol
#       -analytic 3.4387e+001 6.0811e-003 -3.3068e+003 -1.2252e+001 -5.1609e+001
#	-Vm       4.764 3.8529 4.2318 -2.9382 0.4925
#       -Range:  0-300  

# (25)
1.0000 UO2++ + 1.0000 SO4--  =  UO2SO4
        -llnl_gamma           3.0    
        log_k           +3.0703
	-delta_H	19.7626	kJ/mol	# Calculated enthalpy of reaction	UO2SO4
#	Enthalpy of formation:	-1908.84 kJ/mol
        -analytic 1.9514e+002 7.0951e-002 -4.9949e+003 -7.9394e+001 -8.4888e+001
#       -Range:  0-200

# (26)
1.000U+4 + 1.000H2O  = U(OH)+3 + 1.000H+
     -llnl_gamma 5.0
     log_k    -0.533     
     delta_h  46.808     #kJ/mol        #97bsho/sas
     -analytic 1.4994368E+2  2.387185E-2  -9.5100277E+3  -5.2425834E+1  3.57955E+5
#     -Vm        2.1611 -2.5064 6.739 -2.6753 2.3058
     #References = LogK/DGf: 97bsho/sas; DHf/DHr: Internal calculation; S¡ã: 97bsho/sas; Cp: 97bsho/sas; V¡ã: 97bsho/sas;

# (27)
1.0000 U++++ + 1.0000 SO4--  =  USO4++
        -llnl_gamma           4.5    
        log_k           +6.5003
	-delta_H	8.2616	kJ/mol	# Calculated enthalpy of reaction	USO4+2
#	Enthalpy of formation:	-1492.54 kJ/mol
        -analytic 1.9418e+002 7.5458e-002 -4.0646e+003 -7.9416e+001 -6.3482e+001
#       -Range:  0-300
# (28)
7.0000 H2O + 4.0000 UO2++  =  (UO2)4(OH)7+ +7.0000 H+
        -llnl_gamma           4.0    
        log_k           -21.9508
	-delta_H	0	      	# Not possible to calculate enthalpy of reaction	(UO2)4(OH)7+
#	Enthalpy of formation:	-0 kcal/mol
# (29)
5.0000 H2O + 3.0000 UO2++  =  (UO2)3(OH)5+ +5.0000 H+
        -llnl_gamma           4.0    
        log_k           -15.5862
	-delta_H	97.1056	kJ/mol	# Calculated enthalpy of reaction	(UO2)3(OH)5+
#	Enthalpy of formation:	-4389.09 kJ/mol
        -analytic 1.6004e+002 7.0827e-003 -1.1700e+004 -5.5973e+001 -1.8261e+002
#       -Range:  0-300
# (30)
7.0000 H2O + 3.0000 UO2++  =  (UO2)3(OH)7- +7.0000 H+
        -llnl_gamma           4.0    
#        log_k           -31.0508
        log_k           -32.2  #Guillaumont2003
	-delta_H	0	      	# Not possible to calculate enthalpy of reaction	(UO2)3(OH)7-
#	Enthalpy of formation:	-0 kcal/mol

# (31)
3.0000 UO2++ + 3.0000 H2O + 1.0000 HCO3-  =  (UO2)3O(OH)2(HCO3)+ +4.0000 H+
        -llnl_gamma           4.0    
        log_k           -9.7129
	-delta_H	0	      	# Not possible to calculate enthalpy of reaction	(UO2)3O(OH)2(HCO3)+
#	Enthalpy of formation:	-0 kcal/mol
 
# (32) 
7.0000 H2O + 4.0000 UO2++  =  (UO2)4(OH)7+ +7.0000 H+
        -llnl_gamma           4.0    
        log_k           -21.9508
	-delta_H	0	      	# Not possible to calculate enthalpy of reaction	(UO2)4(OH)7+
#	Enthalpy of formation:	-0 kcal/mol

# (33)
3.0000 H2O + 2.0000 UO2++ + 1.0000 HCO3-  =  (UO2)2CO3(OH)3- +4.0000 H+
        -llnl_gamma           4.0    
        log_k           -11.2229
	-delta_H	0	      	# Not possible to calculate enthalpy of reaction	(UO2)2CO3(OH)3-
#	Enthalpy of formation:	-0 kcal/mol

# (34)
2.0000 UO2++ + 2.0000 H2O  =  (UO2)2(OH)2++ +2.0000 H+
        -llnl_gamma           4.5    
        log_k           -5.6346
	-delta_H	37.6127	kJ/mol	# Calculated enthalpy of reaction	(UO2)2(OH)2+2
#	Enthalpy of formation:	-2572.06 kJ/mol
        -analytic 6.4509e+001 -7.6875e-004 -4.8433e+003 -2.1689e+001 -7.5593e+001
#       -Range:  0-300
# (35)
12.0000 H2O + 11.0000 UO2++ + 6.0000 HCO3-  =  (UO2)11(CO3)6(OH)12-2 +18.0000 H+
        -llnl_gamma           4.0    
        log_k           -25.7347
	-delta_H	0	      	# Not possible to calculate enthalpy of reaction	(UO2)11(CO3)6(OH)12-2
#	Enthalpy of formation:	-0 kcal/mol

# (36)
2.0000 UO2++ + 1.0000 H2O  =  (UO2)2OH+++ +1.0000 H+
        -llnl_gamma           5.0    
        log_k           -2.7072
	-delta_H	0	      	# Not possible to calculate enthalpy of reaction	(UO2)2OH+3
#	Enthalpy of formation:	-0 kcal/mol

# (37)
6.0000 HCO3- + 3.0000 UO2++  =  (UO2)3(CO3)6-6 +6.0000 H+
        -llnl_gamma           4.0    
        log_k           -8.0601
	-delta_H	25.5204	kJ/mol	# Calculated enthalpy of reaction	(UO2)3(CO3)6-6
#	Enthalpy of formation:	-7171.08 kJ/mol
        -analytic 7.4044e+002 2.7299e-001 -1.7614e+004 -3.1149e+002 -2.7507e+002
#       -Range:  0-300

# (38)
4.0000 H2O + 3.0000 UO2++  =  (UO2)3(OH)4++ +4.0000 H+
        -llnl_gamma           4.5    
        log_k           -11.929
	-delta_H	0	      	# Not possible to calculate enthalpy of reaction	(UO2)3(OH)4+2
#	Enthalpy of formation:	-0 kcal/mol
PHASES
#Akermanite
#	Ca2MgSi2O7 + 6 H+  =  Mg+2 + 2 Ca+2 + 2 H4SiO4 - H2O # llnl.dat
#	log_k	   45.23
#	-delta_H	-289	kJ/mol
#	Vm 92.6
Akermanite
        Ca2MgSi2O7 +6.0000 H+  =  + 1.0000 Mg++ + 2.0000 Ca++ + 2.0000 SiO2 + 3.0000 H2O
        log_k           45.3190
	-delta_H	-288.575	kJ/mol	# Calculated enthalpy of reaction	Akermanite
#	Enthalpy of formation:	-926.497 kcal/mol
        -analytic -4.8295e+001 -8.5613e-003 2.0880e+004 1.3798e+001 -7.1975e+005
#       -Range:  0-300    
Anhydrite
	CaSO4 = Ca+2 + SO4-2
	log_k   -4.362
	-analytical_expression  5.009  -2.21e-2  -796.4 # ref. 3
	-Vm 46.1 # 136.14 / 2.95
#Anthophyllite
#	Mg7Si8O22(OH)2 + 14 H+  =  7 Mg+2 - 8 H2O + 8 H4SiO4 # llnl.dat
#	log_k	   66.80
#	-delta_H	-483	kJ/mol
#	Vm 269
Anthophyllite
        Mg7Si8O22(OH)2 +14.0000 H+  =  + 7.0000 Mg++ + 8.0000 H2O + 8.0000 SiO2
        log_k           66.7965
	-delta_H	-483.486	kJ/mol	# Calculated enthalpy of reaction	Anthophyllite
#	Enthalpy of formation:	-2888.75 kcal/mol
        -analytic -1.2865e+002 1.9705e-002 5.4853e+004 1.9444e+001 -3.8080e+006
#       -Range:  0-300    
#Antigorite
#	Mg48Si34O85(OH)62 + 96 H+  =  34 H4SiO4 + 48 Mg+2 + 11 H2O # llnl.dat
#	log_k	   477.19
#	-delta_H	-3364	kJ/mol
#	Vm 1745
Antigorite
#        Mg48Si24O85(OH)62 +96.0000 H+  =  + 34.0000 SiO2 + 48.0000 Mg++ + 79.0000 H2O
        Mg48Si34O85(OH)62 +96.0000 H+  =  + 34.0000 SiO2 + 48.0000 Mg++ + 79.0000 H2O 
        log_k           477.1943
	-delta_H	-3364.43	kJ/mol	# Calculated enthalpy of reaction	Antigorite
#	Enthalpy of formation:	-17070.9 kcal/mol
        -analytic -8.1630e+002 -6.7780e-002 2.5998e+005 2.2029e+002 -9.3275e+006
#       -Range:  0-300    
Aragonite
	CaCO3 = CO3-2 + Ca+2
	log_k   -8.336
	delta_h -2.589 kcal
	-analytic     -171.8607   -.077993    2903.293    71.595
	-Vm 34.04
Arcanite
	K2SO4  =  SO4-2 + 2 K+
	log_k   -1.776; -delta_h 5 kcal
	-analytical_expression   674.142  0.30423  -18037  -280.236  0  -1.44055e-4 # ref. 3
	# Note, the Linke and Seidell data may give subsaturation in other xpt's, SI = -0.06
	-Vm 65.5
Artinite
	Mg2CO3(OH)2:3H2O + 3 H+  =  HCO3- + 2 Mg+2 + 5 H2O # llnl.dat
	log_k	   19.66
	-delta_H	-130	kJ/mol
	Vm 97.4
Barite
	BaSO4 = Ba+2 + SO4-2
	log_k  -9.97; delta_h  6.35 kcal
	-analytical_expression  -282.43  -8.972e-2  5822  113.08 # ref. 3
	-Vm 52.9
Bischofite
	MgCl2:6H2O  =  Mg+2 + 2 Cl- + 6 H2O
	log_k	   4.455
	-analytical_expression  7.526  -1.114e-2  115.7 # ref. 3
	Vm 127.1
Bloedite
	Na2Mg(SO4)2:4H2O  = Mg++ + 2 Na+ + 2 SO4-- + 4 H2O
	log_k	   -2.347
	-delta_H	0	     # Not possible to calculate enthalpy of reaction	Bloedite
	Vm 147
Brucite
	Mg(OH)2  = Mg++ + 2 OH-
	log_k	   -10.88
	-delta_H	4.85    kcal/mol
	Vm 24.6
Burkeite
	Na6CO3(SO4)2  = CO3-2 + 2 SO4-- + 6 Na+
	log_k	   -0.772
	Vm 152
Calcite
	CaCO3 = CO3-2 + Ca+2
	log_k	   -8.406
	delta_h -2.297 kcal
	-analytic   -237.04  -0.1077  0  102.25  6.79e5 # ref. 3 + data from Ellis, 1959, Plummer and Busenberg, 1982 
	-Vm 36.9
Carnallite
	KMgCl3:6H2O  =  K+ + Mg+2 + 3Cl- + 6H2O
	log_k  4.35; -delta_h 1.17
	-analytical_expression  24.06  -3.11e-2  -3.09e3 # ref. 3
	Vm 173.7
Celestite
	SrSO4 = Sr+2 + SO4-2
	log_k	   -6.630
	-analytic  -7.14 6.11E-03  75 0 0 -1.79E-05  # ref. 3
	-Vm 46.4
#Chalcedony
#	SiO2 + 2 H2O = H4SiO4
#	-log_k  -3.55;  -delta_h  4.720 kcal
#	-Vm 23.1

Chalcedony
        SiO2  =  + 1.0000 SiO2
        log_k           -3.7281
	-delta_H	31.4093	kJ/mol	# Calculated enthalpy of reaction	Chalcedony
#	Enthalpy of formation:	-217.282 kcal/mol
        -analytic -9.0068e+000 9.3241e-003 4.0535e+003 -1.0830e+000 -7.5077e+005
#       -Range:  0-300
    
#Chrysotile
#	Mg3Si2O5(OH)4 + 6 H+ = H2O + 2 H4SiO4 + 3 Mg+2 # phreeqc.dat
#	-log_k	32.2
#	-delta_h -46.800 kcal
#	-analytic	13.248	0.0	10217.1	-6.1894
#	-Vm 110
Chrysotile
        Mg3Si2O5(OH)4 +6.0000 H+  =  + 2.0000 SiO2 + 3.0000 Mg++ + 5.0000 H2O
        log_k           31.1254
	-delta_H	-218.041	kJ/mol	# Calculated enthalpy of reaction	Chrysotile
#	Enthalpy of formation:	-1043.12 kcal/mol
        -analytic -9.2462e+001 -1.1359e-002 1.8312e+004 2.9289e+001 -6.2342e+005
#       -Range:  0-300    
#Diopside
#	CaMgSi2O6 + 4 H+  =  Ca+2 + Mg+2 - 2 H2O + 2 H4SiO4 # llnl.dat
#	log_k	   20.96
#	-delta_H	-134	kJ/mol
#	Vm 67.2
    
Diopside
        CaMgSi2O6 +4.0000 H+  =  + 1.0000 Ca++ + 1.0000 Mg++ + 2.0000 H2O + 2.0000 SiO2
        log_k           20.9643
	-delta_H	-133.775	kJ/mol	# Calculated enthalpy of reaction	Diopside
#	Enthalpy of formation:	-765.378 kcal/mol
        -analytic 7.1240e+001 1.5514e-002 8.1437e+003 -3.0672e+001 -5.6880e+005
#       -Range:  0-300    
Dolomite
	CaMg(CO3)2 = Ca+2 + Mg+2 + 2 CO3-2
	log_k	   -17.083
	delta_h -9.436 kcal
	-analytical_expression 17.502 -0.0689 -4220.119   #Li Jun added, 2018-5-22. From Benezeth et al. (2018), Geochimica et Cosmochimica Acta 224 (2018) 262¨C275
	-Vm 64.5
#Enstatite
#	MgSiO3 + 2 H+  = - H2O + Mg+2 + H4SiO4 # llnl.dat
#	log_k	   11.33
#	-delta_H	-83	kJ/mol
#	Vm 31.3
    
Enstatite
        MgSiO3 +2.0000 H+  =  + 1.0000 H2O + 1.0000 Mg++ + 1.0000 SiO2
        log_k           11.3269
	-delta_H	-82.7302	kJ/mol	# Calculated enthalpy of reaction	Enstatite
#	Enthalpy of formation:	-369.686 kcal/mol
        -analytic -4.9278e+001 -3.2832e-003 9.5205e+003 1.4437e+001 -5.4324e+005
#       -Range:  0-300
Epsomite
	MgSO4:7H2O  =  Mg+2 + SO4-2 + 7 H2O
	log_k	   -1.881
	-analytical_expression  4.479  -6.99e-3  -1.265e3 # ref. 3
	Vm 147
#Forsterite
#	Mg2SiO4 + 4 H+  =  H4SiO4 + 2 Mg+2 # llnl.dat
#	log_k	   27.86
#	-delta_H	-206	kJ/mol
#	Vm 43.7
    
Forsterite
        Mg2SiO4 +4.0000 H+  =  + 1.0000 SiO2 + 2.0000 H2O + 2.0000 Mg++
        log_k           27.8626
	-delta_H	-205.614	kJ/mol	# Calculated enthalpy of reaction	Forsterite
#	Enthalpy of formation:	-520 kcal/mol
        -analytic -7.6195e+001 -1.4013e-002 1.4763e+004 2.5090e+001 -3.0379e+005
#       -Range:  0-300  
  
Gaylussite
	CaNa2(CO3)2:5H2O = Ca+2 + 2 CO3-2 + 2 Na+ + 5 H2O
	log_k	   -9.421
Glaserite
	NaK3(SO4)2 =  Na+ + 3K+ + 2SO4-2
	log_k   -3.803;  -delta_h 25
	-Vm 123
Glauberite
	Na2Ca(SO4)2  =  Ca+2 + 2 Na+ + 2 SO4-2
	log_k	   -5.31
	-analytical_expression  218.142  0  -9285  -77.735 # ref. 3
	Vm 100.4
Goergeyite
	K2Ca5(SO4)6H2O = 2K+ + 5Ca+2 + 6SO4-2 + H2O
	log_k -29.5
	-analytical_expression  1056.787  0  -52300  -368.06 # ref. 3
	-Vm  295.9
Gypsum
	CaSO4:2H2O = Ca+2 + SO4-2 + 2 H2O
	-log_k	-4.58;  -delta_h -0.109 kcal
	-analytical_expression  82.381  0  -3804.5  -29.9952 # ref. 3
	-Vm 73.9
Halite
	NaCl  =  Cl- + Na+
	log_k	   1.570
	-analytical_expression 159.605  8.4294e-2  -3975.6  -66.857  0  -4.9364e-5 # ref. 3
	-Vm 27.1
Hexahydrite
	MgSO4:6H2O  =  Mg+2 + SO4-2 + 6 H2O
	log_k	   -1.635
	-analytical_expression  -0.733  -2.80e-3  -8.57e-3 # ref. 3
	Vm 132
Huntite
	CaMg3(CO3)4 + 4 H+  =  Ca+2 + 3 Mg+2 + 4 HCO3- # llnl.dat
	log_k	   10.30
	-analytical_expression  -1.145e3  -3.249e-1  3.941e4  4.526e2
	Vm 130.8
Sulfur
	S + 2H+ + 2e- = H2S
	-log_k	4.882
    -delta_h -9.5 kcal
Kainite
    KMgClSO4:3H2O  =  Cl- + K+ + Mg+2 + SO4-2 + 3 H2O
    log_k	   -0.193
Kalicinite
    KHCO3  =  K+ + H+ + CO3-2
    log_k	   -9.94 # Harvie et al., 1984
Kieserite
    MgSO4:H2O  =  Mg+2 + SO4-2 + H2O
    log_k	   -0.123
    -analytical_expression  47.24  -0.12077  -5.356e3  0  0  7.272e-5 # ref. 3
    Vm 53.8
Labile_S
    Na4Ca(SO4)3:2H2O = 4Na+ + Ca+2 + 3SO4-2 + 2H2O
    log_k	   -5.672
Leonhardite
    MgSO4:4H2O = Mg+2 + SO4-2 + 4H2O
    log_k	   -0.887
Leonite
	K2Mg(SO4)2:4H2O  =  Mg+2 + 2 K+ + 2 SO4-2 + 4 H2O
	log_k	   -3.979
Magnesite
	MgCO3 =  CO3-2 + Mg+2
	log_k	  -7.834
	delta_h	-6.169
	-analytical_expression 7.267 -0.033918 -1476.604 #From Benezeth et al. 2011
	Vm 28.3
Lansfordite
       MgCO3:5H2O = Mg+2 + CO3-2 + 5 H2O
#       -analytical_expression 0.0 0.0 0.0
       log_k -4.85
       Vm 100.81   #Li Jun added (estimation), - 2018.1.15
MgCl2_2H2O
	MgCl2:2H2O  =  Mg+2 + 2 Cl- + 2 H2O
	-analytical_expression  -10.273  0  7.403e3 # ref. 3
MgCl2_4H2O
	MgCl2:4H2O  =  Mg+2 + 2 Cl- + 4 H2O
	-analytical_expression  12.98  -2.013e-2 # ref. 3
Mirabilite
	Na2SO4:10H2O  =  SO4-2 + 2 Na+ + 10 H2O
	-analytical_expression  -301.9326  -0.16232  0  141.078 # ref. 3
	Vm 216
Misenite
	K8H6(SO4)7  =  6 H+ + 7 SO4-2 + 8 K+
	log_k	   -10.806
Nahcolite
	NaHCO3  =  CO3-2 + H+ + Na+
	log_k	   -10.742
	Vm 38.0
Natron
	Na2CO3:10H2O = CO3-2 + 2 Na+ + 10 H2O
	log_k	   -0.825
Nesquehonite
	MgCO3:3H2O =  CO3-2 + Mg+2 + 3 H2O
	log_k	   -5.167
#	-analytical_expression 0.4902 -0.0149 -378.7 #Li Jun added. -2018.1.16
#	-analytical_expression 0.4657 -0.01424 -359.8
#	-analytical_expression 0.4412 -0.01349 -340.8 
#	-analytical_expression 0.4559 -0.01394 -352.2
#	-analytical_expression 0.4804 -0.01469 -371.1
       -analytical_expression -6.008 -0.00688 873.4
	Vm 74.789  #Li Jun added (estimation), - 2018.1.15
Pentahydrite
	MgSO4:5H2O  =  Mg+2 + SO4-2 + 5 H2O
	log_k	   -1.285
Pirssonite
	Na2Ca(CO3)2:2H2O = 2Na+ + Ca+2 + 2CO3-2 + 2 H2O
	log_k	   -9.234