DATABASE phreeqc.dat
SOLUTION 1 Formation Water 
         pH 7.0 charge
	 pe 4.0
	 temp         30 #145
	 pressure     1.0 #74.12
       -units         mol/kgw
EQUILIBRIUM_PHASES 
H2O(g)  0.0 0.0
CO2(g) 0.0 0.0       
END
	   